############ INITIALIZATION PARAMETERS ############
include /home/adi/workspace-directory/courses/iitr-phn600b-msc-thesis-project/code/../runs/nve_lammps_pair_style/scripts/init.lmp
variable num_atom_types      equal 2
variable initial_num_atoms   equal 501
variable initial_density     equal 1.655
variable initial_temperature equal 0.28
variable initial_pressure    equal 2.37*10^(-6)
variable dt equal 0.001

############ CREATE CUBIC SIMULATION BOX ############
variable box       equal (501/1.655)^(1.0/3.0)
variable box_end   equal 0.5*6.71449326567
variable box_start equal -0.5*6.71449326567

region          simulation_box block -3.357246632835 3.357246632835 -3.357246632835 3.357246632835 -3.357246632835 3.357246632835
create_box      2 simulation_box
Created orthogonal box = (-3.3572466 -3.3572466 -3.3572466) to (3.3572466 3.3572466 3.3572466)

############ PRINT INITIAL CONFIGURATION ############
Initial Num Atoms = 501
Initial Density = 1.655
Initial Pressure = 2.37e-06
Initial Temperature = 0.28
Initial Cubic Box Length = 6.71449326567

############ INITIALIZE INTERACTIONS ############
include /home/adi/workspace-directory/courses/iitr-phn600b-msc-thesis-project/code/../runs/nve_lammps_pair_style/scripts/interaction.lmp
variable ntw_gamma equal 2.2
variable cut equal 12.0/2.84

############ INITIALIZE INTERACTIONS ############
include /home/adi/workspace-directory/courses/iitr-phn600b-msc-thesis-project/code/../data/ntw_pair_style/ntw.lmp
labelmap atom 1 Si
labelmap atom 2 O

variable mass_Si equal 1.00
variable mass_O equal 0.57

mass Si 1.00
mass O  0.57

pair_style ntw 2.2 4.22535211267606

variable eps11 equal 1.0
variable eps12 equal 6.0
variable eps22 equal 1.0

variable sig11 equal 1.00
variable sig12 equal 0.49
variable sig22 equal 0.85

pair_coeff Si Si 1.0 1.00
pair_coeff Si O  6.0 0.49
pair_coeff O  O  1.0 0.85

variable frac_Si equal 0.33
variable frac_O  equal 0.67

variable n_Si equal round(0.33*501)
variable n_O  equal round(0.67*501)

create_atoms 1 random 165 341341 simulation_box
Created 165 atoms
create_atoms 2 random 336  127569 simulation_box
Created 336 atoms

############ RUN SIMULATION ############
include /home/adi/workspace-directory/courses/iitr-phn600b-msc-thesis-project/code/../runs/nve_lammps_pair_style/scripts/simulation.lmp
variable data_path string /home/adi/workspace-directory/courses/iitr-phn600b-msc-thesis-project/code/../runs/nve_lammps_pair_style/data/N_501
shell mkdir /home/adi/workspace-directory/courses/iitr-phn600b-msc-thesis-project/code/../runs/nve_lammps_pair_style/data/N_501
include /home/adi/workspace-directory/courses/iitr-phn600b-msc-thesis-project/code/../runs/nve_lammps_pair_style/scripts/compute.lmp
variable global_exp_stride               equal 100
variable global_exp_avg_stride           equal 1
variable global_exp_avg_num              equal 1

variable xvfp_calcp                      equal 0

variable temperature_calcp               equal 1
variable temperature_exp_stride          equal 100
variable temperature_exp_avg_stride      equal 1
variable temperature_exp_avg_num         equal 1

variable pressure_calcp                  equal 1
variable pressure_exp_stride             equal 100
variable pressure_exp_avg_stride         equal 1
variable pressure_exp_avg_num            equal 1

variable momentum_calcp                  equal 1
variable momentum_exp_stride             equal 100
variable momentum_exp_avg_stride         equal 1
variable momentum_exp_avg_num            equal 1

variable angular_momentum_calcp          equal 0
variable angular_momentum_exp_stride     equal 100
variable angular_momentum_exp_avg_stride equal 1
variable angular_momentum_exp_avg_num    equal 1

variable energy_calcp                    equal 1
variable energy_exp_stride               equal 100
variable energy_exp_avg_stride           equal 1
variable energy_exp_avg_num              equal 1

variable velocity_dist_calcp              equal 1

variable rdf_calcp              equal 1
variable rdf_exp_stride         equal 100000
variable rdf_exp_avg_stride     equal 1
variable rdf_exp_avg_num        equal 1000
variable rdf_bins               equal 500
variable rdf_cutoff_11          equal 4.22535211267606
variable rdf_cutoff_12          equal 4.22535211267606
variable rdf_cutoff_22          equal 4.22535211267606

variable adf_calcp              equal 0
variable adf_exp_stride         equal 10000
variable adf_exp_avg_stride     equal 1
variable adf_exp_avg_num        equal 1
variable adf_bins               equal 500
variable adf_inner_cutoff_111   equal 0.0
variable adf_inner_cutoff_121   equal 0.0
variable adf_inner_cutoff_212   equal 0.0
variable adf_inner_cutoff_222   equal 0.0

###################################################
############ DO NOT MODIFY ########################
###################################################
compute type_chunk all chunk/atom type

compute calc_rdf_all all rdf 500
compute calc_rdf_11 all rdf 500 1 1
compute calc_rdf_12 all rdf 500 1 2
compute calc_rdf_22 all rdf 500 2 2

compute calc_temperature all temp
fix dump_temperature all ave/time 1 1 100         c_calc_temperature file /home/adi/workspace-directory/courses/iitr-phn600b-msc-thesis-project/code/../runs/nve_lammps_pair_style/data/N_501/temperature.dat

compute calc_pressure all pressure calc_temperature virial
fix dump_pressure all ave/time 1 1 100         c_calc_pressure file /home/adi/workspace-directory/courses/iitr-phn600b-msc-thesis-project/code/../runs/nve_lammps_pair_style/data/N_501/pressure.dat

compute calc_ke all ke
compute calc_pe all pe
fix dump_ke all ave/time 1 1 100         c_calc_ke c_calc_pe file /home/adi/workspace-directory/courses/iitr-phn600b-msc-thesis-project/code/../runs/nve_lammps_pair_style/data/N_501/energy.dat
compute calc_momentum all momentum
fix dump_momentum all ave/time 1 1 100         c_calc_momentum[*] file /home/adi/workspace-directory/courses/iitr-phn600b-msc-thesis-project/code/../runs/nve_lammps_pair_style/data/N_501/momentum.dat

compute calc_vel all property/atom vx vy vz
fix aveg_velocity_dist all ave/atom 1 1 100000         c_calc_vel[1] c_calc_vel[2] c_calc_vel[3]
dump dump_velocity_dist all custom 100000 /home/adi/workspace-directory/courses/iitr-phn600b-msc-thesis-project/code/../runs/nve_lammps_pair_style/data/N_501/velocity_dist.dat id         f_aveg_velocity_dist[1] f_aveg_velocity_dist[2] f_aveg_velocity_dist[3]

velocity all create 0.28 12345 dist gaussian
velocity all zero linear
velocity all zero angular

thermo_style custom step temp pe ke etotal press

### STAGE 0 ###
thermo 10
minimize 1.0e-4 1.0e-6 1000 10000

CITE-CITE-CITE-CITE-CITE-CITE-CITE-CITE-CITE-CITE-CITE-CITE-CITE

Your simulation uses code contributions which should be cited:

- Type Label Framework: https://doi.org/10.1021/acs.jpcb.3c08419

@Article{Gissinger24,
 author = {Jacob R. Gissinger, Ilia Nikiforov, Yaser Afshar, Brendon Waters, Moon-ki Choi, Daniel S. Karls, Alexander Stukowski, Wonpil Im, Hendrik Heinz, Axel Kohlmeyer, and Ellad B. Tadmor},
 title = {Type Label Framework for Bonded Force Fields in LAMMPS},
 journal = {J. Phys. Chem. B},
 year =    2024,
 volume =  128,
 number =  13,
 pages =   {3282--3297}
}

CITE-CITE-CITE-CITE-CITE-CITE-CITE-CITE-CITE-CITE-CITE-CITE-CITE

Generated 0 of 1 mixed pair_coeff terms from geometric mixing rule
Step          Temp          PotEng         KinEng         TotEng         Press
0   0.2796467      1.21238e+08    0.41863279     1.21238e+08    8.0259693e+08
Loop time of 0.0616131 on 8 procs for 66 steps with 501 atoms

Minimization stats:
  Stopping criterion = energy tolerance
  Energy initial, next-to-last, final =
  Force two-norm initial, final = 4.8173987e+12 407.9859
  Force max component initial, final = 2.1133181e+12 123.96641
  Final line search alpha, max atom move = 1.5819077e-05 0.0019610342
  Iterations, force evaluations = 66 161

### STAGE 1 ###
thermo 1000
fix run_nve_1 all nve
timestep 0.001
run 100000
Generated 0 of 1 mixed pair_coeff terms from geometric mixing rule
Step          Temp          PotEng         KinEng         TotEng         Press
66   0.2796467     -4.9070322      0.41863279    -4.4883994      2.0553308
Averages over the last 51 of 102 rows, steps 51000 to 100066:
Temp PotEng KinEng TotEng Press
0.527147 -5.27756 0.789142 -4.48842 1.76594
Loop time of 18.9996 on 8 procs for 100000 steps with 501 atoms

dump save all custom 1 /home/adi/workspace-directory/courses/iitr-phn600b-msc-thesis-project/code/../data/initial_states/nve_501.dat id type x y z vx vy vz
run 1
Generated 0 of 1 mixed pair_coeff terms from geometric mixing rule
Step          Temp          PotEng         KinEng         TotEng         Press
100066   0.52737668    -5.2779057      0.78948604    -4.4884196      1.0624766
Loop time of 0.000461469 on 8 procs for 1 steps with 501 atoms

unfix run_nve_1
