############ INITIALIZATION PARAMETERS ############
include /home/adi/workspace-directory/courses/iitr-phn600b-msc-thesis-project/code/../runs/nvt_cool_sample/scripts/init.lmp
variable num_atom_types      equal 2
variable initial_num_atoms   equal 501
variable initial_density     equal 1.655
variable initial_pressure    equal 2.37*10^(-6)

############ CREATE CUBIC SIMULATION BOX ############
variable box       equal (501/1.655)^(1.0/3.0)
variable box_end   equal 0.5*6.71449326567
variable box_start equal -0.5*6.71449326567

region          simulation_box block -3.357246632835 3.357246632835 -3.357246632835 3.357246632835 -3.357246632835 3.357246632835
create_box      2 simulation_box
Created orthogonal box = (-3.3572466 -3.3572466 -3.3572466) to (3.3572466 3.3572466 3.3572466)

############ INITIALIZE INTERACTIONS ############
include /home/adi/workspace-directory/courses/iitr-phn600b-msc-thesis-project/code/../runs/nvt_cool_sample/scripts/interaction.lmp
variable ntw_gamma equal 2.2
variable cut equal 12.0/2.84

############ INITIALIZE INTERACTIONS ############
include /home/adi/workspace-directory/courses/iitr-phn600b-msc-thesis-project/code/../data/ntw_pair_style/ntw.lmp
labelmap atom 1 Si
labelmap atom 2 O

variable mass_Si equal 1.00
variable mass_O equal 0.57

mass Si 1.00
mass O  0.57

pair_style ntw 2.2 4.22535211267606

variable eps11 equal 1.0
variable eps12 equal 6.0
variable eps22 equal 1.0

variable sig11 equal 1.00
variable sig12 equal 0.49
variable sig22 equal 0.85

pair_coeff Si Si 1.0 1.00
pair_coeff Si O  6.0 0.49
pair_coeff O  O  1.0 0.85

variable frac_Si equal 0.33
variable frac_O  equal 0.67

variable n_Si equal round(0.33*501)
variable n_O  equal round(0.67*501)

create_atoms 1 random 165 341341 simulation_box
Created 165 atoms
create_atoms 2 random 336  127569 simulation_box
Created 336 atoms

############ RUN SIMULATION ############
include /home/adi/workspace-directory/courses/iitr-phn600b-msc-thesis-project/code/../runs/nvt_cool_sample/scripts/simulation.lmp
read_dump /home/adi/workspace-directory/courses/iitr-phn600b-msc-thesis-project/code/../data/initial_states/nve_501.dat 0 x y z vx vy vz
Scanning dump file ...
Reading snapshot from dump file ...
  orthogonal box = (-3.3572466 -3.3572466 -3.3572466) to (3.3572466 3.3572466 3.3572466)
  501 atoms before read
  501 atoms in snapshot
  0 atoms purged
  501 atoms replaced
  0 atoms trimmed
  0 atoms added
  501 atoms after read

#### ----- Changable
variable T_damp           equal 0.02
variable dt               equal 0.002
variable final_T          equal 0.28
variable cool_interval    equal 0.07142857
variable tol_T            equal 0.00001
variable num_cool_steps   equal 10
variable thermalize_steps equal 30000
variable quench_steps     equal 10
variable num_chains       equal 1
####

variable data_path string /home/adi/workspace-directory/courses/iitr-phn600b-msc-thesis-project/code/../runs/nvt_cool_sample/data/N_501_T_0.28
shell mkdir /home/adi/workspace-directory/courses/iitr-phn600b-msc-thesis-project/code/../runs/nvt_cool_sample/data/N_501_T_0.28

include /home/adi/workspace-directory/courses/iitr-phn600b-msc-thesis-project/code/../runs/nvt_cool_sample/scripts/compute.lmp
variable global_exp_stride               equal 1
variable global_exp_avg_stride           equal 1
variable global_exp_avg_num              equal 1

variable xvfp_calcp                      equal 0

variable temperature_calcp               equal 1
variable temperature_exp_stride          equal 1
variable temperature_exp_avg_stride      equal 1
variable temperature_exp_avg_num         equal 1

variable pressure_calcp                  equal 1
variable pressure_exp_stride             equal 1
variable pressure_exp_avg_stride         equal 1
variable pressure_exp_avg_num            equal 1

variable momentum_calcp                  equal 1
variable momentum_exp_stride             equal 1
variable momentum_exp_avg_stride         equal 1
variable momentum_exp_avg_num            equal 1

variable angular_momentum_calcp          equal 0
variable angular_momentum_exp_stride     equal 1
variable angular_momentum_exp_avg_stride equal 1
variable angular_momentum_exp_avg_num    equal 1

variable energy_calcp                    equal 1
variable energy_exp_stride               equal 1
variable energy_exp_avg_stride           equal 1
variable energy_exp_avg_num              equal 1

variable velocity_dist_calcp              equal 0

variable rdf_calcp              equal 0
variable rdf_exp_stride         equal 30000# 420000
variable rdf_exp_avg_stride     equal 1
variable rdf_exp_avg_num        equal 10000
variable rdf_bins               equal 500
variable rdf_cutoff_11          equal 4.22535211267606
variable rdf_cutoff_12          equal 4.22535211267606
variable rdf_cutoff_22          equal 4.22535211267606

variable adf_calcp              equal 0
variable adf_exp_stride         equal 10000
variable adf_exp_avg_stride     equal 1
variable adf_exp_avg_num        equal 1
variable adf_bins               equal 500
variable adf_inner_cutoff_111   equal 0.0
variable adf_inner_cutoff_121   equal 0.0
variable adf_inner_cutoff_212   equal 0.0
variable adf_inner_cutoff_222   equal 0.0

###################################################
############ DO NOT MODIFY ########################
###################################################
compute type_chunk all chunk/atom type

compute calc_temperature all temp
fix dump_temperature all ave/time 1 1 1         c_calc_temperature file /home/adi/workspace-directory/courses/iitr-phn600b-msc-thesis-project/code/../runs/nvt_cool_sample/data/N_501_T_0.28/temperature.dat

compute calc_pressure all pressure calc_temperature virial
fix dump_pressure all ave/time 1 1 1         c_calc_pressure file /home/adi/workspace-directory/courses/iitr-phn600b-msc-thesis-project/code/../runs/nvt_cool_sample/data/N_501_T_0.28/pressure.dat

compute calc_ke all ke
compute calc_pe all pe
fix dump_ke all ave/time 1 1 1         c_calc_ke c_calc_pe
fix dump_energy all ave/time 1 1 1         f_dump_ke[1] f_dump_ke[2] file /home/adi/workspace-directory/courses/iitr-phn600b-msc-thesis-project/code/../runs/nvt_cool_sample/data/N_501_T_0.28/energy.dat

compute calc_momentum all momentum
fix dump_momentum all ave/time 1 1 1         c_calc_momentum[*] file /home/adi/workspace-directory/courses/iitr-phn600b-msc-thesis-project/code/../runs/nvt_cool_sample/data/N_501_T_0.28/momentum.dat

thermo_style custom step temp f_dump_temperature pe f_dump_ke[2] ke f_dump_ke[1] etotal press
thermo 1000

fix start_eq all nve
timestep 0.002
run 1

CITE-CITE-CITE-CITE-CITE-CITE-CITE-CITE-CITE-CITE-CITE-CITE-CITE

Your simulation uses code contributions which should be cited:

- Type Label Framework: https://doi.org/10.1021/acs.jpcb.3c08419

@Article{Gissinger24,
 author = {Jacob R. Gissinger, Ilia Nikiforov, Yaser Afshar, Brendon Waters, Moon-ki Choi, Daniel S. Karls, Alexander Stukowski, Wonpil Im, Hendrik Heinz, Axel Kohlmeyer, and Ellad B. Tadmor},
 title = {Type Label Framework for Bonded Force Fields in LAMMPS},
 journal = {J. Phys. Chem. B},
 year =    2024,
 volume =  128,
 number =  13,
 pages =   {3282--3297}
}

CITE-CITE-CITE-CITE-CITE-CITE-CITE-CITE-CITE-CITE-CITE-CITE-CITE

Generated 0 of 1 mixed pair_coeff terms from geometric mixing rule
Step          Temp      f_dump_temperature     PotEng      f_dump_ke[2]      KinEng      f_dump_ke[1]      TotEng         Press
0   0.52737661     0.52737661    -5.2779081     -5.2779081      0.78948594     0.78948594    -4.4884221      1.0624401
Loop time of 0.000467158 on 8 procs for 1 steps with 501 atoms

unfix start_eq

variable final_tol_T equal 0.28+1e-05
variable start_T   equal c_calc_temperature
variable from        equal 0.28+0.07142857
variable cool_step equal 0.07142857/10

### LINEAR STEP COOLING ###
fix thermalize_1 all nvt temp 0.525652281089178 0.35142857 0.02 tchain 1
timestep 0.002
run 1000
Generated 0 of 1 mixed pair_coeff terms from geometric mixing rule
Step          Temp      f_dump_temperature     PotEng      f_dump_ke[2]      KinEng      f_dump_ke[1]      TotEng         Press
1   0.52565228     0.52565228    -5.2753148     -5.2753148      0.78690461     0.78690461    -4.4884102      1.1008376
Loop time of 0.268791 on 8 procs for 1000 steps with 501 atoms

unfix thermalize_1

label cool_loop
variable to   equal 0.35142857-0.007142857

fix quench_loop all nvt temp 0.35142857 0.344285713 0.02 tchain 1
timestep 0.002
run 10
Generated 0 of 1 mixed pair_coeff terms from geometric mixing rule
Step          Temp      f_dump_temperature     PotEng      f_dump_ke[2]      KinEng      f_dump_ke[1]      TotEng         Press
1001   0.34122471     0.34122471    -5.6538104     -5.6538104      0.51081544     0.51081544    -5.1429949      1.0491779
Loop time of 0.00369642 on 8 procs for 10 steps with 501 atoms

unfix quench_loop

fix thermalize_loop all nvt temp 0.344285713 0.344285713 0.02 tchain 1
timestep 0.002
run 30000
Generated 0 of 1 mixed pair_coeff terms from geometric mixing rule
Step          Temp      f_dump_temperature     PotEng      f_dump_ke[2]      KinEng      f_dump_ke[1]      TotEng         Press
1011   0.34892916     0.34892916    -5.6608533     -5.6608533      0.52234904     0.52234904    -5.1385043      1.05215
Averages over the last 16 of 32 rows, steps 17000 to 31011:
Temp f_dump_temperature PotEng f_dump_ke[2] KinEng f_dump_ke[1] TotEng Press
0.343811 0.343811 -5.86321 -5.86321 0.514688 0.514688 -5.34852 1.08163
Loop time of 8.45022 on 8 procs for 30000 steps with 501 atoms

unfix thermalize_loop

variable from equal 0.344285713

jump /home/adi/workspace-directory/courses/iitr-phn600b-msc-thesis-project/code/../runs/nvt_cool_sample/scripts/simulation.lmp cool_loop
variable to   equal 0.344285713-0.007142857

fix quench_loop all nvt temp 0.344285713 0.337142856 0.02 tchain 1
timestep 0.002
run 10
Generated 0 of 1 mixed pair_coeff terms from geometric mixing rule
Step          Temp      f_dump_temperature     PotEng      f_dump_ke[2]      KinEng      f_dump_ke[1]      TotEng         Press
31011   0.34249443     0.34249443    -5.8624847     -5.8624847      0.51271621     0.51271621    -5.3497685      1.2835651
Loop time of 0.00383243 on 8 procs for 10 steps with 501 atoms

unfix quench_loop

fix thermalize_loop all nvt temp 0.337142856 0.337142856 0.02 tchain 1
timestep 0.002
run 30000
Generated 0 of 1 mixed pair_coeff terms from geometric mixing rule
Step          Temp      f_dump_temperature     PotEng      f_dump_ke[2]      KinEng      f_dump_ke[1]      TotEng         Press
31021   0.34022029     0.34022029    -5.8668146     -5.8668146      0.50931181     0.50931181    -5.3575028      1.2751186
Averages over the last 16 of 32 rows, steps 47000 to 61021:
Temp f_dump_temperature PotEng f_dump_ke[2] KinEng f_dump_ke[1] TotEng Press
0.331464 0.331464 -5.87734 -5.87734 0.496204 0.496204 -5.38114 1.11851
Loop time of 8.78937 on 8 procs for 30000 steps with 501 atoms

unfix thermalize_loop

variable from equal 0.337142856

jump /home/adi/workspace-directory/courses/iitr-phn600b-msc-thesis-project/code/../runs/nvt_cool_sample/scripts/simulation.lmp cool_loop
variable to   equal 0.337142856-0.007142857

fix quench_loop all nvt temp 0.337142856 0.329999999 0.02 tchain 1
timestep 0.002
run 10
Generated 0 of 1 mixed pair_coeff terms from geometric mixing rule
Step          Temp      f_dump_temperature     PotEng      f_dump_ke[2]      KinEng      f_dump_ke[1]      TotEng         Press
61021   0.3281491      0.3281491     -5.910444      -5.910444       0.49124117     0.49124117    -5.4192029      1.2891335
Loop time of 0.00379445 on 8 procs for 10 steps with 501 atoms

unfix quench_loop

fix thermalize_loop all nvt temp 0.329999999 0.329999999 0.02 tchain 1
timestep 0.002
run 30000
Generated 0 of 1 mixed pair_coeff terms from geometric mixing rule
Step          Temp      f_dump_temperature     PotEng      f_dump_ke[2]      KinEng      f_dump_ke[1]      TotEng         Press
61031   0.33841849     0.33841849    -5.9146174     -5.9146174      0.50661451     0.50661451    -5.4080029      1.1316235
Averages over the last 16 of 32 rows, steps 77000 to 91031:
Temp f_dump_temperature PotEng f_dump_ke[2] KinEng f_dump_ke[1] TotEng Press
0.329371 0.329371 -5.92125 -5.92125 0.49307 0.49307 -5.42818 1.16346
Loop time of 8.63975 on 8 procs for 30000 steps with 501 atoms

unfix thermalize_loop

variable from equal 0.329999999

jump /home/adi/workspace-directory/courses/iitr-phn600b-msc-thesis-project/code/../runs/nvt_cool_sample/scripts/simulation.lmp cool_loop
variable to   equal 0.329999999-0.007142857

fix quench_loop all nvt temp 0.329999999 0.322857142 0.02 tchain 1
timestep 0.002
run 10
Generated 0 of 1 mixed pair_coeff terms from geometric mixing rule
Step          Temp      f_dump_temperature     PotEng      f_dump_ke[2]      KinEng      f_dump_ke[1]      TotEng         Press
91031   0.32683753     0.32683753    -5.9335447     -5.9335447      0.48927775     0.48927775    -5.4442669      1.2458932
Loop time of 0.00399552 on 8 procs for 10 steps with 501 atoms

unfix quench_loop

fix thermalize_loop all nvt temp 0.322857142 0.322857142 0.02 tchain 1
timestep 0.002
run 30000
Generated 0 of 1 mixed pair_coeff terms from geometric mixing rule
Step          Temp      f_dump_temperature     PotEng      f_dump_ke[2]      KinEng      f_dump_ke[1]      TotEng         Press
91041   0.32426712     0.32426712    -5.9264668     -5.9264668      0.48542982     0.48542982    -5.441037       1.1656693
Averages over the last 16 of 32 rows, steps 107000 to 121041:
Temp f_dump_temperature PotEng f_dump_ke[2] KinEng f_dump_ke[1] TotEng Press
0.323826 0.323826 -5.94812 -5.94812 0.48477 0.48477 -5.46335 1.08336
Loop time of 8.786 on 8 procs for 30000 steps with 501 atoms

unfix thermalize_loop

variable from equal 0.322857142

jump /home/adi/workspace-directory/courses/iitr-phn600b-msc-thesis-project/code/../runs/nvt_cool_sample/scripts/simulation.lmp cool_loop
variable to   equal 0.322857142-0.007142857

fix quench_loop all nvt temp 0.322857142 0.315714285 0.02 tchain 1
timestep 0.002
run 10
Generated 0 of 1 mixed pair_coeff terms from geometric mixing rule
Step          Temp      f_dump_temperature     PotEng      f_dump_ke[2]      KinEng      f_dump_ke[1]      TotEng         Press
121041   0.33507445     0.33507445    -5.9407534     -5.9407534      0.50160845     0.50160845    -5.439145       0.88641968
Loop time of 0.00411034 on 8 procs for 10 steps with 501 atoms

unfix quench_loop

fix thermalize_loop all nvt temp 0.315714285 0.315714285 0.02 tchain 1
timestep 0.002
run 30000
Generated 0 of 1 mixed pair_coeff terms from geometric mixing rule
Step          Temp      f_dump_temperature     PotEng      f_dump_ke[2]      KinEng      f_dump_ke[1]      TotEng         Press
121051   0.31743564     0.31743564    -5.9336055     -5.9336055      0.47520306     0.47520306    -5.4584024      0.68564522
Averages over the last 16 of 32 rows, steps 137000 to 151051:
Temp f_dump_temperature PotEng f_dump_ke[2] KinEng f_dump_ke[1] TotEng Press
0.315038 0.315038 -5.9783 -5.9783 0.471614 0.471614 -5.50669 0.803853
Loop time of 8.89353 on 8 procs for 30000 steps with 501 atoms

unfix thermalize_loop

variable from equal 0.315714285

jump /home/adi/workspace-directory/courses/iitr-phn600b-msc-thesis-project/code/../runs/nvt_cool_sample/scripts/simulation.lmp cool_loop
variable to   equal 0.315714285-0.007142857

fix quench_loop all nvt temp 0.315714285 0.308571428 0.02 tchain 1
timestep 0.002
run 10
Generated 0 of 1 mixed pair_coeff terms from geometric mixing rule
Step          Temp      f_dump_temperature     PotEng      f_dump_ke[2]      KinEng      f_dump_ke[1]      TotEng         Press
151051   0.32480812     0.32480812    -5.9945698     -5.9945698      0.4862397      0.4862397     -5.5083301      0.81268187
Loop time of 0.00415065 on 8 procs for 10 steps with 501 atoms

unfix quench_loop

fix thermalize_loop all nvt temp 0.308571428 0.308571428 0.02 tchain 1
timestep 0.002
run 30000
Generated 0 of 1 mixed pair_coeff terms from geometric mixing rule
Step          Temp      f_dump_temperature     PotEng      f_dump_ke[2]      KinEng      f_dump_ke[1]      TotEng         Press
151061   0.31682999     0.31682999    -6.0034266     -6.0034266      0.47429639     0.47429639    -5.5291303      0.72348804
Averages over the last 16 of 32 rows, steps 167000 to 181061:
Temp f_dump_temperature PotEng f_dump_ke[2] KinEng f_dump_ke[1] TotEng Press
0.31103 0.31103 -5.96669 -5.96669 0.465614 0.465614 -5.50108 0.957207
Loop time of 8.77844 on 8 procs for 30000 steps with 501 atoms

unfix thermalize_loop

variable from equal 0.308571428

jump /home/adi/workspace-directory/courses/iitr-phn600b-msc-thesis-project/code/../runs/nvt_cool_sample/scripts/simulation.lmp cool_loop
variable to   equal 0.308571428-0.007142857

fix quench_loop all nvt temp 0.308571428 0.301428571 0.02 tchain 1
timestep 0.002
run 10
Generated 0 of 1 mixed pair_coeff terms from geometric mixing rule
Step          Temp      f_dump_temperature     PotEng      f_dump_ke[2]      KinEng      f_dump_ke[1]      TotEng         Press
181061   0.32988923     0.32988923    -5.9916056     -5.9916056      0.49384615     0.49384615    -5.4977594      1.0616504
Loop time of 0.00423529 on 8 procs for 10 steps with 501 atoms

unfix quench_loop

fix thermalize_loop all nvt temp 0.301428571 0.301428571 0.02 tchain 1
timestep 0.002
run 30000
Generated 0 of 1 mixed pair_coeff terms from geometric mixing rule
Step          Temp      f_dump_temperature     PotEng      f_dump_ke[2]      KinEng      f_dump_ke[1]      TotEng         Press
181071   0.30289756     0.30289756    -5.9818371     -5.9818371      0.45343947     0.45343947    -5.5283976      0.98539001
Averages over the last 16 of 32 rows, steps 197000 to 211071:
Temp f_dump_temperature PotEng f_dump_ke[2] KinEng f_dump_ke[1] TotEng Press
0.303654 0.303654 -6.0087 -6.0087 0.454572 0.454572 -5.55413 1.01381
Loop time of 8.90209 on 8 procs for 30000 steps with 501 atoms

unfix thermalize_loop

variable from equal 0.301428571

jump /home/adi/workspace-directory/courses/iitr-phn600b-msc-thesis-project/code/../runs/nvt_cool_sample/scripts/simulation.lmp cool_loop
variable to   equal 0.301428571-0.007142857

fix quench_loop all nvt temp 0.301428571 0.294285714 0.02 tchain 1
timestep 0.002
run 10
Generated 0 of 1 mixed pair_coeff terms from geometric mixing rule
Step          Temp      f_dump_temperature     PotEng      f_dump_ke[2]      KinEng      f_dump_ke[1]      TotEng         Press
211071   0.31115286     0.31115286    -5.9968836     -5.9968836      0.46579769     0.46579769    -5.531086       1.3042567
Loop time of 0.00397747 on 8 procs for 10 steps with 501 atoms

unfix quench_loop

fix thermalize_loop all nvt temp 0.294285714 0.294285714 0.02 tchain 1
timestep 0.002
run 30000
Generated 0 of 1 mixed pair_coeff terms from geometric mixing rule
Step          Temp      f_dump_temperature     PotEng      f_dump_ke[2]      KinEng      f_dump_ke[1]      TotEng         Press
211081   0.29998799     0.29998799    -5.995548      -5.995548       0.44908382     0.44908382    -5.5464642      1.3388082
Averages over the last 16 of 32 rows, steps 227000 to 241081:
Temp f_dump_temperature PotEng f_dump_ke[2] KinEng f_dump_ke[1] TotEng Press
0.291514 0.291514 -6.01593 -6.01593 0.436399 0.436399 -5.57953 0.916455
Loop time of 8.86977 on 8 procs for 30000 steps with 501 atoms

unfix thermalize_loop

variable from equal 0.294285714

jump /home/adi/workspace-directory/courses/iitr-phn600b-msc-thesis-project/code/../runs/nvt_cool_sample/scripts/simulation.lmp cool_loop
variable to   equal 0.294285714-0.007142857

fix quench_loop all nvt temp 0.294285714 0.287142857 0.02 tchain 1
timestep 0.002
run 10
Generated 0 of 1 mixed pair_coeff terms from geometric mixing rule
Step          Temp      f_dump_temperature     PotEng      f_dump_ke[2]      KinEng      f_dump_ke[1]      TotEng         Press
241081   0.29582098     0.29582098    -5.981161      -5.981161       0.44284578     0.44284578    -5.5383152      1.5894815
Loop time of 0.0041762 on 8 procs for 10 steps with 501 atoms

unfix quench_loop

fix thermalize_loop all nvt temp 0.287142857 0.287142857 0.02 tchain 1
timestep 0.002
run 30000
Generated 0 of 1 mixed pair_coeff terms from geometric mixing rule
Step          Temp      f_dump_temperature     PotEng      f_dump_ke[2]      KinEng      f_dump_ke[1]      TotEng         Press
241091   0.30888512     0.30888512    -6.0109331     -6.0109331      0.46240288     0.46240288    -5.5485302      1.1897849
Averages over the last 16 of 32 rows, steps 257000 to 271091:
Temp f_dump_temperature PotEng f_dump_ke[2] KinEng f_dump_ke[1] TotEng Press
0.287742 0.287742 -6.02009 -6.02009 0.430752 0.430752 -5.58934 0.898504
Loop time of 9.0971 on 8 procs for 30000 steps with 501 atoms

unfix thermalize_loop

variable from equal 0.287142857

jump /home/adi/workspace-directory/courses/iitr-phn600b-msc-thesis-project/code/../runs/nvt_cool_sample/scripts/simulation.lmp cool_loop
variable to   equal 0.287142857-0.007142857

fix quench_loop all nvt temp 0.287142857 0.28 0.02 tchain 1
timestep 0.002
run 10
Generated 0 of 1 mixed pair_coeff terms from geometric mixing rule
Step          Temp      f_dump_temperature     PotEng      f_dump_ke[2]      KinEng      f_dump_ke[1]      TotEng         Press
271091   0.29751341     0.29751341    -6.0068445     -6.0068445      0.44537936     0.44537936    -5.5614652      0.43978194
Loop time of 0.00473324 on 8 procs for 10 steps with 501 atoms

unfix quench_loop

fix thermalize_loop all nvt temp 0.28 0.28 0.02 tchain 1
timestep 0.002
run 30000
Generated 0 of 1 mixed pair_coeff terms from geometric mixing rule
Step          Temp      f_dump_temperature     PotEng      f_dump_ke[2]      KinEng      f_dump_ke[1]      TotEng         Press
271101   0.28631024     0.28631024    -6.0089358     -6.0089358      0.42860815     0.42860815    -5.5803276      0.49205476
Averages over the last 16 of 32 rows, steps 287000 to 301101:
Temp f_dump_temperature PotEng f_dump_ke[2] KinEng f_dump_ke[1] TotEng Press
0.280325 0.280325 -6.04967 -6.04967 0.419647 0.419647 -5.63002 0.840311
Loop time of 9.01752 on 8 procs for 30000 steps with 501 atoms

unfix thermalize_loop

variable from equal 0.28

dump save all custom 1 /home/adi/workspace-directory/courses/iitr-phn600b-msc-thesis-project/code/../data/initial_states/quench_0.28_501.dat id type x y z vx vy vz

fix thermalize_final all nvt temp 0.28 0.28 0.02 tchain 1
timestep 0.002
run 1
Generated 0 of 1 mixed pair_coeff terms from geometric mixing rule
Step          Temp      f_dump_temperature     PotEng      f_dump_ke[2]      KinEng      f_dump_ke[1]      TotEng         Press
301101   0.27280681     0.27280681    -6.064486      -6.064486       0.40839343     0.40839343    -5.6560926      0.57512272
Loop time of 0.000781118 on 8 procs for 1 steps with 501 atoms

unfix thermalize_final
