############ INITIALIZATION PARAMETERS ############
include /home/adi/workspace-directory/courses/iitr-phn600b-msc-thesis-project/code/../runs/nve_lammps_table/scripts/init.lmp
variable dt equal 0.001
variable num_atom_types      equal 2
variable initial_num_atoms   equal 1200
variable initial_density     equal 1.655
variable initial_temperature equal 0.28
variable initial_pressure    equal 2.37*10^(-6)

variable dt equal 0.0001

############ CREATE CUBIC SIMULATION BOX ############
variable box       equal (1200/1.655)^(1.0/3.0)
variable box_end   equal 0.5*8.98382084477085
variable box_start equal -0.5*8.98382084477085

region          simulation_box block -4.49191042238543 4.49191042238543 -4.49191042238543 4.49191042238543 -4.49191042238543 4.49191042238543
create_box      2 simulation_box
Created orthogonal box = (-4.4919104 -4.4919104 -4.4919104) to (4.4919104 4.4919104 4.4919104)

############ PRINT INITIAL CONFIGURATION ############
Initial Num Atoms = 1200
Initial Density = 1.655
Initial Pressure = 2.37e-06
Initial Temperature = 0.28
Initial Cubic Box Length = 8.98382084477085

############ INITIALIZE INTERACTIONS ############
include /home/adi/workspace-directory/courses/iitr-phn600b-msc-thesis-project/code/../runs/nve_lammps_table/scripts/interaction.lmp
variable ntw_gamma equal 2.2
variable cut equal 12.0/2.84

############ INITIALIZE INTERACTIONS ############
include /home/adi/workspace-directory/courses/iitr-phn600b-msc-thesis-project/code/../data/ntw_table/ntw.lmp
labelmap atom 1 Si
labelmap atom 2 O

mass Si 1.00
mass O  0.57

pair_style table linear 1000

variable SiSi_pot string /home/adi/workspace-directory/courses/iitr-phn600b-msc-thesis-project/code/../data/ntw_table/SiSi.txt
variable SiO_pot string  /home/adi/workspace-directory/courses/iitr-phn600b-msc-thesis-project/code/../data/ntw_table/SiO.txt
variable OO_pot string   /home/adi/workspace-directory/courses/iitr-phn600b-msc-thesis-project/code/../data/ntw_table/OO.txt

pair_coeff Si Si /home/adi/workspace-directory/courses/iitr-phn600b-msc-thesis-project/code/../data/ntw_table/SiSi.txt NTW
Reading pair table potential file /home/adi/workspace-directory/courses/iitr-phn600b-msc-thesis-project/code/../data/ntw_table/SiSi.txt with DATE: 2025-02-02
pair_coeff Si O  /home/adi/workspace-directory/courses/iitr-phn600b-msc-thesis-project/code/../data/ntw_table/SiO.txt NTW
Reading pair table potential file /home/adi/workspace-directory/courses/iitr-phn600b-msc-thesis-project/code/../data/ntw_table/SiO.txt with DATE: 2025-02-02
pair_coeff O Si  /home/adi/workspace-directory/courses/iitr-phn600b-msc-thesis-project/code/../data/ntw_table/SiO.txt NTW
Reading pair table potential file /home/adi/workspace-directory/courses/iitr-phn600b-msc-thesis-project/code/../data/ntw_table/SiO.txt with DATE: 2025-02-02
pair_coeff O  O  /home/adi/workspace-directory/courses/iitr-phn600b-msc-thesis-project/code/../data/ntw_table/OO.txt NTW
Reading pair table potential file /home/adi/workspace-directory/courses/iitr-phn600b-msc-thesis-project/code/../data/ntw_table/OO.txt with DATE: 2025-02-02

variable frac_Si equal 0.33
variable frac_O  equal 0.67

variable n_Si equal round(0.33*1200)
variable n_O  equal round(0.67*1200)

create_atoms 1 random 396 341341 simulation_box
Created 396 atoms
create_atoms 2 random 804  127569 simulation_box
Created 804 atoms

############ RUN SIMULATION ############
include /home/adi/workspace-directory/courses/iitr-phn600b-msc-thesis-project/code/../runs/nve_lammps_table/scripts/simulation.lmp
read_dump /home/adi/workspace-directory/courses/iitr-phn600b-msc-thesis-project/code/../data/initial_states/1200.dat 0 x y z
Scanning dump file ...
Reading snapshot from dump file ...
  orthogonal box = (-4.4919104 -4.4919104 -4.4919104) to (4.4919104 4.4919104 4.4919104)
  1200 atoms before read
  1200 atoms in snapshot
  0 atoms purged
  1200 atoms replaced
  0 atoms trimmed
  0 atoms added
  1200 atoms after read

include /home/adi/workspace-directory/courses/iitr-phn600b-msc-thesis-project/code/../runs/nve_lammps_table/scripts/compute.lmp
variable global_exp_stride               equal 100
variable global_exp_avg_stride           equal 1
variable global_exp_avg_num              equal 1

variable xvfp_calcp                      equal 0

variable temperature_calcp               equal 1
variable temperature_exp_stride          equal 100
variable temperature_exp_avg_stride      equal 1
variable temperature_exp_avg_num         equal 1

variable pressure_calcp                  equal 1
variable pressure_exp_stride             equal 100
variable pressure_exp_avg_stride         equal 1
variable pressure_exp_avg_num            equal 1

variable momentum_calcp                  equal 1
variable momentum_exp_stride             equal 100
variable momentum_exp_avg_stride         equal 1
variable momentum_exp_avg_num            equal 1

variable angular_momentum_calcp          equal 0
variable angular_momentum_exp_stride     equal 100
variable angular_momentum_exp_avg_stride equal 1
variable angular_momentum_exp_avg_num    equal 1

variable energy_calcp                    equal 1
variable energy_exp_stride               equal 100
variable energy_exp_avg_stride           equal 1
variable energy_exp_avg_num              equal 1

variable velocity_dist_calcp              equal 1

variable rdf_calcp              equal 1
variable rdf_exp_stride         equal 100000
variable rdf_exp_avg_stride     equal 1
variable rdf_exp_avg_num        equal 10000
variable rdf_bins               equal 500
variable rdf_cutoff_11          equal 4.22535211267606
variable rdf_cutoff_12          equal 4.22535211267606
variable rdf_cutoff_22          equal 4.22535211267606

variable adf_calcp              equal 0
variable adf_exp_stride         equal 10000
variable adf_exp_avg_stride     equal 1
variable adf_exp_avg_num        equal 1
variable adf_bins               equal 500
variable adf_inner_cutoff_111   equal 0.0
variable adf_inner_cutoff_121   equal 0.0
variable adf_inner_cutoff_212   equal 0.0
variable adf_inner_cutoff_222   equal 0.0

###################################################
############ DO NOT MODIFY ########################
###################################################
compute type_chunk all chunk/atom type

compute calc_rdf_all all rdf 500
compute calc_rdf_11 all rdf 500 1 1
compute calc_rdf_12 all rdf 500 1 2
compute calc_rdf_22 all rdf 500 2 2

compute calc_temperature all temp
fix dump_temperature all ave/time 1 1 100         c_calc_temperature file /home/adi/workspace-directory/courses/iitr-phn600b-msc-thesis-project/code/../runs/nve_lammps_table/data/temperature.dat

compute calc_pressure all pressure calc_temperature virial
fix dump_pressure all ave/time 1 1 100         c_calc_pressure file /home/adi/workspace-directory/courses/iitr-phn600b-msc-thesis-project/code/../runs/nve_lammps_table/data/pressure.dat

compute calc_ke all ke
compute calc_pe all pe
fix dump_ke all ave/time 1 1 100         c_calc_ke c_calc_pe file /home/adi/workspace-directory/courses/iitr-phn600b-msc-thesis-project/code/../runs/nve_lammps_table/data/energy.dat
compute calc_momentum all momentum
fix dump_momentum all ave/time 1 1 100         c_calc_momentum[*] file /home/adi/workspace-directory/courses/iitr-phn600b-msc-thesis-project/code/../runs/nve_lammps_table/data/momentum.dat

compute calc_vel all property/atom vx vy vz
fix aveg_velocity_dist all ave/atom 1 1 100000         c_calc_vel[1] c_calc_vel[2] c_calc_vel[3]
dump dump_velocity_dist all custom 100000 /home/adi/workspace-directory/courses/iitr-phn600b-msc-thesis-project/code/../runs/nve_lammps_table/data/velocity_dist.dat id         f_aveg_velocity_dist[1] f_aveg_velocity_dist[2] f_aveg_velocity_dist[3]

velocity all create 0.28 12345 dist gaussian
velocity all zero linear
velocity all zero angular

thermo_style custom step temp pe ke etotal press

### STAGE 1 ###
thermo 1000
fix run_nve_1 all nve
timestep 0.0001
run 100000

CITE-CITE-CITE-CITE-CITE-CITE-CITE-CITE-CITE-CITE-CITE-CITE-CITE

Your simulation uses code contributions which should be cited:

- Type Label Framework: https://doi.org/10.1021/acs.jpcb.3c08419

@Article{Gissinger24,
 author = {Jacob R. Gissinger, Ilia Nikiforov, Yaser Afshar, Brendon Waters, Moon-ki Choi, Daniel S. Karls, Alexander Stukowski, Wonpil Im, Hendrik Heinz, Axel Kohlmeyer, and Ellad B. Tadmor},
 title = {Type Label Framework for Bonded Force Fields in LAMMPS},
 journal = {J. Phys. Chem. B},
 year =    2024,
 volume =  128,
 number =  13,
 pages =   {3282--3297}
}

CITE-CITE-CITE-CITE-CITE-CITE-CITE-CITE-CITE-CITE-CITE-CITE-CITE

Generated 0 of 1 mixed pair_coeff terms from geometric mixing rule
Step          Temp          PotEng         KinEng         TotEng         Press
0   0.27998173    -4.1821824      0.41962262    -3.7625598      3.8140302
Averages over the last 51 of 101 rows, steps 50000 to 100000:
Temp PotEng KinEng TotEng Press
0.673137 -4.77132 1.00886 -3.76245 2.39197
Loop time of 100.276 on 8 procs for 100000 steps with 1200 atoms

unfix run_nve_1
